@<TRIPOS>MOLECULE
****
12 12 1 0 0
SMALL
USER_CHARGES


@<TRIPOS>ATOM
      1 C          -1.1579    0.6685    0.0000 C.ar      1     ****    0.0000
      2 C          -1.1579   -0.6685    0.0000 C.ar      1     ****    0.0000
      3 C          -0.0000   -1.3370    0.0000 C.ar      1     ****    0.0000
      4 C           1.1579   -0.6685    0.0000 C.ar      1     ****    0.0000
      5 C           1.1579    0.6685    0.0000 C.ar      1     ****    0.0000
      6 C           0.0000    1.3370    0.0000 C.ar      1     ****    0.0000
      7 H          -2.1105    1.2185    0.0000 H         1     ****    0.0000
      8 H          -2.1105   -1.2185    0.0000 H         1     ****    0.0000
      9 H          -0.0000   -2.4370    0.0000 H         1     ****    0.0000
     10 H           2.1105   -1.2185    0.0000 H         1     ****    0.0000
     11 H           2.1105    1.2185    0.0000 H         1     ****    0.0000
     12 H           0.0000    2.4370    0.0000 H         1     ****    0.0000
@<TRIPOS>BOND
     1     1     2     2
     2     1     6     1
     3     1     7     1
     4     2     3     1
     5     2     8     1
     6     3     4     2
     7     3     9     1
     8     4     5     1
     9     4    10     1
    10     5     6     2
    11     5    11     1
    12     6    12     1
